854023
  -OEChem-03112503122D

 27 29  0     1  0  0  0  0  0999 V2000
    2.1510   -3.3514    0.0000 Cl  0  0  0  0  0  0  0  0  0  0  0  0
    4.7363    2.8144    0.0000 N   0  0  0  0  0  0  0  0  0  0  0  0
    2.0000   -1.6259    0.0000 N   0  0  0  0  0  0  0  0  0  0  0  0
    5.2141    0.8659    0.0000 C   0  0  1  0  0  0  0  0  0  0  0  0
    5.4730    1.8318    0.0000 C   0  0  2  0  0  0  0  0  0  0  0  0
    3.8414    0.2739    0.0000 C   0  0  2  0  0  0  0  0  0  0  0  0
    3.4994    1.2136    0.0000 C   0  0  0  0  0  0  0  0  0  0  0  0
    6.6131    0.3571    0.0000 C   0  0  0  0  0  0  0  0  0  0  0  0
    6.8719    1.3230    0.0000 C   0  0  0  0  0  0  0  0  0  0  0  0
    3.4188   -0.6324    0.0000 C   0  0  0  0  0  0  0  0  0  0  0  0
    3.9924   -1.4516    0.0000 C   0  0  0  0  0  0  0  0  0  0  0  0
    2.4226   -0.7196    0.0000 C   0  0  0  0  0  0  0  0  0  0  0  0
    3.5698   -2.3579    0.0000 C   0  0  0  0  0  0  0  0  0  0  0  0
    2.5736   -2.4451    0.0000 C   0  0  0  0  0  0  0  0  0  0  0  0
    4.9941    0.0449    0.0000 H   0  0  0  0  0  0  0  0  0  0  0  0
    5.6930    2.6528    0.0000 H   0  0  0  0  0  0  0  0  0  0  0  0
    4.2734   -0.1709    0.0000 H   0  0  0  0  0  0  0  0  0  0  0  0
    3.3051    1.8023    0.0000 H   0  0  0  0  0  0  0  0  0  0  0  0
    2.9136    1.0104    0.0000 H   0  0  0  0  0  0  0  0  0  0  0  0
    6.4182   -0.2315    0.0000 H   0  0  0  0  0  0  0  0  0  0  0  0
    7.2070    0.1793    0.0000 H   0  0  0  0  0  0  0  0  0  0  0  0
    7.4659    1.1452    0.0000 H   0  0  0  0  0  0  0  0  0  0  0  0
    7.0668    1.9116    0.0000 H   0  0  0  0  0  0  0  0  0  0  0  0
    4.4263    3.3514    0.0000 H   0  0  0  0  0  0  0  0  0  0  0  0
    4.6100   -1.3976    0.0000 H   0  0  0  0  0  0  0  0  0  0  0  0
    2.0670   -0.2117    0.0000 H   0  0  0  0  0  0  0  0  0  0  0  0
    3.9254   -2.8658    0.0000 H   0  0  0  0  0  0  0  0  0  0  0  0
  1 14  1  0  0  0  0
  2  4  1  0  0  0  0
  2  5  1  0  0  0  0
  2 24  1  0  0  0  0
  3 12  1  0  0  0  0
  3 14  2  0  0  0  0
  4  6  1  0  0  0  0
  4  8  1  0  0  0  0
  4 15  1  1  0  0  0
  5  7  1  0  0  0  0
  5  9  1  0  0  0  0
  5 16  1  6  0  0  0
  6  7  1  0  0  0  0
  6 10  1  1  0  0  0
  6 17  1  0  0  0  0
  7 18  1  0  0  0  0
  7 19  1  0  0  0  0
  8  9  1  0  0  0  0
  8 20  1  0  0  0  0
  8 21  1  0  0  0  0
  9 22  1  0  0  0  0
  9 23  1  0  0  0  0
 10 11  1  0  0  0  0
 10 12  2  0  0  0  0
 11 13  2  0  0  0  0
 11 25  1  0  0  0  0
 12 26  1  0  0  0  0
 13 14  1  0  0  0  0
 13 27  1  0  0  0  0
M  END
> <PUBCHEM_COMPOUND_CID>
854023

> <PUBCHEM_COMPOUND_CANONICALIZED>
1

> <PUBCHEM_CACTVS_COMPLEXITY>
221

> <PUBCHEM_CACTVS_HBOND_ACCEPTOR>
2

> <PUBCHEM_CACTVS_HBOND_DONOR>
1

> <PUBCHEM_CACTVS_ROTATABLE_BOND>
1

> <PUBCHEM_CACTVS_SUBSKEYS>
AAADccBzAAAEAAAAAAAAAAAAAAAAAWLAAAA8QAAAAAAAAAABgAAAHAIQAAAADSrBGiQ8gJLIEACgAjBnRACCgCAxByAI2KA4ZpgIIOLBk5GEIAhgkADIyAcQgMAOgAAAAAAAAAAAAACAAAQAAAAAAAAAAA==

> <PUBCHEM_IUPAC_OPENEYE_NAME>
(1R,2R,4S)-2-(6-chloro-3-pyridyl)-7-azabicyclo[2.2.1]heptane

> <PUBCHEM_IUPAC_CAS_NAME>
(1R,2R,4S)-2-(6-chloro-3-pyridinyl)-7-azabicyclo[2.2.1]heptane

> <PUBCHEM_IUPAC_NAME_MARKUP>
(1<I>R</I>,2<I>R</I>,4<I>S</I>)-2-(6-chloropyridin-3-yl)-7-azabicyclo[2.2.1]heptane

> <PUBCHEM_IUPAC_NAME>
(1R,2R,4S)-2-(6-chloropyridin-3-yl)-7-azabicyclo[2.2.1]heptane

> <PUBCHEM_IUPAC_SYSTEMATIC_NAME>
(1R,2R,4S)-2-(6-chloranylpyridin-3-yl)-7-azabicyclo[2.2.1]heptane

> <PUBCHEM_IUPAC_TRADITIONAL_NAME>
(1R,2R,4S)-2-(6-chloro-3-pyridyl)-7-azabicyclo[2.2.1]heptane

> <PUBCHEM_IUPAC_INCHI>
InChI=1S/C11H13ClN2/c12-11-4-1-7(6-13-11)9-5-8-2-3-10(9)14-8/h1,4,6,8-10,14H,2-3,5H2/t8-,9+,10+/m0/s1

> <PUBCHEM_IUPAC_INCHIKEY>
NLPRAJRHRHZCQQ-IVZWLZJFSA-N

> <PUBCHEM_XLOGP3_AA>
2.2

> <PUBCHEM_EXACT_MASS>
208.0767261

> <PUBCHEM_MOLECULAR_FORMULA>
C11H13ClN2

> <PUBCHEM_MOLECULAR_WEIGHT>
208.69

> <PUBCHEM_SMILES>
C1C[C@@H]2[C@H](C[C@H]1N2)C3=CN=C(C=C3)Cl

> <PUBCHEM_OPENEYE_CAN_SMILES>
C1CC2C(CC1N2)C3=CN=C(C=C3)Cl

> <PUBCHEM_OPENEYE_ISO_SMILES>
C1C[C@@H]2[C@H](C[C@H]1N2)C3=CN=C(C=C3)Cl

> <PUBCHEM_CACTVS_TPSA>
24.9

> <PUBCHEM_MONOISOTOPIC_WEIGHT>
208.0767261

> <PUBCHEM_TOTAL_CHARGE>
0

> <PUBCHEM_HEAVY_ATOM_COUNT>
14

> <PUBCHEM_ATOM_DEF_STEREO_COUNT>
3

> <PUBCHEM_ATOM_UDEF_STEREO_COUNT>
0

> <PUBCHEM_BOND_DEF_STEREO_COUNT>
0

> <PUBCHEM_BOND_UDEF_STEREO_COUNT>
0

> <PUBCHEM_ISOTOPIC_ATOM_COUNT>
0

> <PUBCHEM_COMPONENT_COUNT>
1

> <PUBCHEM_CACTVS_TAUTO_COUNT>
-1

> <PUBCHEM_COORDINATE_TYPE>
1
5
255

> <PUBCHEM_BONDANNOTATIONS>
10  11  8
10  12  8
11  13  8
13  14  8
3  12  8
3  14  8
4  15  5
5  16  6
6  10  5

$$$$
