11983356
  -OEChem-03112503132D

 39 40  0     1  0  0  0  0  0999 V2000
    5.0080    0.5000    0.0000 O   0  0  0  0  0  0  0  0  0  0  0  0
   13.6682    1.5000    0.0000 O   0  0  0  0  0  0  0  0  0  0  0  0
    2.3100    0.2412    0.0000 N   0  0  0  0  0  0  0  0  0  0  0  0
    6.7400   -1.5000    0.0000 N   0  0  0  0  0  0  0  0  0  0  0  0
    3.2759    0.5000    0.0000 C   0  0  1  0  0  0  0  0  0  0  0  0
    3.0171    1.4659    0.0000 C   0  0  0  0  0  0  0  0  0  0  0  0
    2.0512    1.2071    0.0000 C   0  0  0  0  0  0  0  0  0  0  0  0
    4.1419   -0.0000    0.0000 C   0  0  0  0  0  0  0  0  0  0  0  0
    5.8740   -0.0000    0.0000 C   0  0  0  0  0  0  0  0  0  0  0  0
   11.0702    1.0000    0.0000 C   0  0  0  0  0  0  0  0  0  0  0  0
   11.9362    1.5000    0.0000 C   0  0  0  0  0  0  0  0  0  0  0  0
    6.7400    0.5000    0.0000 C   0  0  0  0  0  0  0  0  0  0  0  0
   10.2041    1.5000    0.0000 C   0  0  0  0  0  0  0  0  0  0  0  0
    5.8740   -1.0000    0.0000 C   0  0  0  0  0  0  0  0  0  0  0  0
    7.6060   -0.0000    0.0000 C   0  0  0  0  0  0  0  0  0  0  0  0
   12.8022    1.0000    0.0000 C   0  0  0  0  0  0  0  0  0  0  0  0
    7.6060   -1.0000    0.0000 C   0  0  0  0  0  0  0  0  0  0  0  0
    9.3381    1.0000    0.0000 C   0  0  0  0  0  0  0  0  0  0  0  0
    8.4721    0.5000    0.0000 C   0  0  0  0  0  0  0  0  0  0  0  0
    3.1950   -0.1147    0.0000 H   0  0  0  0  0  0  0  0  0  0  0  0
    3.6160    1.6264    0.0000 H   0  0  0  0  0  0  0  0  0  0  0  0
    2.8566    2.0648    0.0000 H   0  0  0  0  0  0  0  0  0  0  0  0
    1.8907    1.8060    0.0000 H   0  0  0  0  0  0  0  0  0  0  0  0
    1.4523    1.0466    0.0000 H   0  0  0  0  0  0  0  0  0  0  0  0
    2.0000   -0.2958    0.0000 H   0  0  0  0  0  0  0  0  0  0  0  0
    3.7434   -0.4749    0.0000 H   0  0  0  0  0  0  0  0  0  0  0  0
    4.5405   -0.4749    0.0000 H   0  0  0  0  0  0  0  0  0  0  0  0
   10.6716    0.5251    0.0000 H   0  0  0  0  0  0  0  0  0  0  0  0
   11.4687    0.5251    0.0000 H   0  0  0  0  0  0  0  0  0  0  0  0
   12.3347    1.9750    0.0000 H   0  0  0  0  0  0  0  0  0  0  0  0
   11.5377    1.9750    0.0000 H   0  0  0  0  0  0  0  0  0  0  0  0
    6.7400    1.1200    0.0000 H   0  0  0  0  0  0  0  0  0  0  0  0
   10.6027    1.9750    0.0000 H   0  0  0  0  0  0  0  0  0  0  0  0
    9.8056    1.9750    0.0000 H   0  0  0  0  0  0  0  0  0  0  0  0
    5.3371   -1.3100    0.0000 H   0  0  0  0  0  0  0  0  0  0  0  0
   12.4037    0.5251    0.0000 H   0  0  0  0  0  0  0  0  0  0  0  0
   13.2007    0.5251    0.0000 H   0  0  0  0  0  0  0  0  0  0  0  0
    8.1430   -1.3100    0.0000 H   0  0  0  0  0  0  0  0  0  0  0  0
   14.2052    1.1900    0.0000 H   0  0  0  0  0  0  0  0  0  0  0  0
  1  8  1  0  0  0  0
  1  9  1  0  0  0  0
  2 16  1  0  0  0  0
  2 39  1  0  0  0  0
  3  5  1  0  0  0  0
  3  7  1  0  0  0  0
  3 25  1  0  0  0  0
  4 14  1  0  0  0  0
  4 17  2  0  0  0  0
  5  6  1  0  0  0  0
  5  8  1  1  0  0  0
  5 20  1  0  0  0  0
  6  7  1  0  0  0  0
  6 21  1  0  0  0  0
  6 22  1  0  0  0  0
  7 23  1  0  0  0  0
  7 24  1  0  0  0  0
  8 26  1  0  0  0  0
  8 27  1  0  0  0  0
  9 12  1  0  0  0  0
  9 14  2  0  0  0  0
 10 11  1  0  0  0  0
 10 13  1  0  0  0  0
 10 28  1  0  0  0  0
 10 29  1  0  0  0  0
 11 16  1  0  0  0  0
 11 30  1  0  0  0  0
 11 31  1  0  0  0  0
 12 15  2  0  0  0  0
 12 32  1  0  0  0  0
 13 18  1  0  0  0  0
 13 33  1  0  0  0  0
 13 34  1  0  0  0  0
 14 35  1  0  0  0  0
 15 17  1  0  0  0  0
 15 19  1  0  0  0  0
 16 36  1  0  0  0  0
 16 37  1  0  0  0  0
 17 38  1  0  0  0  0
 18 19  3  0  0  0  0
M  END
> <PUBCHEM_COMPOUND_CID>
11983356

> <PUBCHEM_COMPOUND_CANONICALIZED>
1

> <PUBCHEM_CACTVS_COMPLEXITY>
321

> <PUBCHEM_CACTVS_HBOND_ACCEPTOR>
4

> <PUBCHEM_CACTVS_HBOND_DONOR>
2

> <PUBCHEM_CACTVS_ROTATABLE_BOND>
7

> <PUBCHEM_CACTVS_SUBSKEYS>
AAADceBzMAAAAAAAAAAAAAAAAABYAAAAAAAsAAAAAAAAAAABgAAAHgAQCAAADCzhmgY8hpLIFgDgEjBnRAyCiCAxYCAA2KAvTJgONuLEsZuHeCjk0BHY6AawAAAMAAAAAAAAAAAAAAAAAAAAAAAAAAAAAA==

> <PUBCHEM_IUPAC_OPENEYE_NAME>
6-[5-[[(2S)-azetidin-2-yl]methoxy]-3-pyridyl]hex-5-yn-1-ol

> <PUBCHEM_IUPAC_CAS_NAME>
6-[5-[[(2S)-2-azetidinyl]methoxy]-3-pyridinyl]-5-hexyn-1-ol

> <PUBCHEM_IUPAC_NAME_MARKUP>
6-[5-[[(2<I>S</I>)-azetidin-2-yl]methoxy]pyridin-3-yl]hex-5-yn-1-ol

> <PUBCHEM_IUPAC_NAME>
6-[5-[[(2S)-azetidin-2-yl]methoxy]pyridin-3-yl]hex-5-yn-1-ol

> <PUBCHEM_IUPAC_SYSTEMATIC_NAME>
6-[5-[[(2S)-azetidin-2-yl]methoxy]pyridin-3-yl]hex-5-yn-1-ol

> <PUBCHEM_IUPAC_TRADITIONAL_NAME>
6-[5-[[(2S)-azetidin-2-yl]methoxy]-3-pyridyl]hex-5-yn-1-ol

> <PUBCHEM_IUPAC_INCHI>
InChI=1S/C15H20N2O2/c18-8-4-2-1-3-5-13-9-15(11-16-10-13)19-12-14-6-7-17-14/h9-11,14,17-18H,1-2,4,6-8,12H2/t14-/m0/s1

> <PUBCHEM_IUPAC_INCHIKEY>
WONBUILDJNKYCB-AWEZNQCLSA-N

> <PUBCHEM_XLOGP3_AA>
1.3

> <PUBCHEM_EXACT_MASS>
260.152477885

> <PUBCHEM_MOLECULAR_FORMULA>
C15H20N2O2

> <PUBCHEM_MOLECULAR_WEIGHT>
260.33

> <PUBCHEM_SMILES>
C1CN[C@@H]1COC2=CN=CC(=C2)C#CCCCCO

> <PUBCHEM_OPENEYE_CAN_SMILES>
C1CNC1COC2=CN=CC(=C2)C#CCCCCO

> <PUBCHEM_OPENEYE_ISO_SMILES>
C1CN[C@@H]1COC2=CN=CC(=C2)C#CCCCCO

> <PUBCHEM_CACTVS_TPSA>
54.4

> <PUBCHEM_MONOISOTOPIC_WEIGHT>
260.152477885

> <PUBCHEM_TOTAL_CHARGE>
0

> <PUBCHEM_HEAVY_ATOM_COUNT>
19

> <PUBCHEM_ATOM_DEF_STEREO_COUNT>
1

> <PUBCHEM_ATOM_UDEF_STEREO_COUNT>
0

> <PUBCHEM_BOND_DEF_STEREO_COUNT>
0

> <PUBCHEM_BOND_UDEF_STEREO_COUNT>
0

> <PUBCHEM_ISOTOPIC_ATOM_COUNT>
0

> <PUBCHEM_COMPONENT_COUNT>
1

> <PUBCHEM_CACTVS_TAUTO_COUNT>
-1

> <PUBCHEM_COORDINATE_TYPE>
1
5
255

> <PUBCHEM_BONDANNOTATIONS>
12  15  8
15  17  8
4  14  8
4  17  8
5  8  5
9  12  8
9  14  8

$$$$
