10154289
  -OEChem-03112503142D

 28 28  0     1  0  0  0  0  0999 V2000
    4.5981    2.7500    0.0000 N   0  0  0  0  0  0  0  0  0  0  0  0
    3.7320   -2.7500    0.0000 N   0  0  0  0  0  0  0  0  0  0  0  0
    2.0000   -2.7500    0.0000 N   0  0  0  0  0  0  0  0  0  0  0  0
    4.5981    1.7500    0.0000 C   0  0  2  0  0  0  0  0  0  0  0  0
    3.7320    1.2500    0.0000 C   0  0  0  0  0  0  0  0  0  0  0  0
    5.4641    1.2500    0.0000 C   0  0  0  0  0  0  0  0  0  0  0  0
    3.7320    0.2500    0.0000 C   0  0  0  0  0  0  0  0  0  0  0  0
    5.4641    3.2500    0.0000 C   0  0  0  0  0  0  0  0  0  0  0  0
    2.8660   -0.2500    0.0000 C   0  0  0  0  0  0  0  0  0  0  0  0
    2.8660   -1.2500    0.0000 C   0  0  0  0  0  0  0  0  0  0  0  0
    3.7320   -1.7500    0.0000 C   0  0  0  0  0  0  0  0  0  0  0  0
    2.0000   -1.7500    0.0000 C   0  0  0  0  0  0  0  0  0  0  0  0
    2.8660   -3.2500    0.0000 C   0  0  0  0  0  0  0  0  0  0  0  0
    5.1350    2.0600    0.0000 H   0  0  0  0  0  0  0  0  0  0  0  0
    3.5200    1.8326    0.0000 H   0  0  0  0  0  0  0  0  0  0  0  0
    3.1215    1.1423    0.0000 H   0  0  0  0  0  0  0  0  0  0  0  0
    5.1541    0.7131    0.0000 H   0  0  0  0  0  0  0  0  0  0  0  0
    6.0010    0.9400    0.0000 H   0  0  0  0  0  0  0  0  0  0  0  0
    5.7741    1.7869    0.0000 H   0  0  0  0  0  0  0  0  0  0  0  0
    4.0611    3.0600    0.0000 H   0  0  0  0  0  0  0  0  0  0  0  0
    4.2690   -0.0600    0.0000 H   0  0  0  0  0  0  0  0  0  0  0  0
    5.7741    2.7131    0.0000 H   0  0  0  0  0  0  0  0  0  0  0  0
    6.0010    3.5600    0.0000 H   0  0  0  0  0  0  0  0  0  0  0  0
    5.1541    3.7869    0.0000 H   0  0  0  0  0  0  0  0  0  0  0  0
    2.3291    0.0600    0.0000 H   0  0  0  0  0  0  0  0  0  0  0  0
    4.2690   -1.4400    0.0000 H   0  0  0  0  0  0  0  0  0  0  0  0
    1.4631   -1.4400    0.0000 H   0  0  0  0  0  0  0  0  0  0  0  0
    2.8660   -3.8700    0.0000 H   0  0  0  0  0  0  0  0  0  0  0  0
  4  1  1  1  0  0  0
  1  8  1  0  0  0  0
  1 20  1  0  0  0  0
  2 11  2  0  0  0  0
  2 13  1  0  0  0  0
  3 12  1  0  0  0  0
  3 13  2  0  0  0  0
  4  5  1  0  0  0  0
  4  6  1  0  0  0  0
  4 14  1  0  0  0  0
  5  7  1  0  0  0  0
  5 15  1  0  0  0  0
  5 16  1  0  0  0  0
  6 17  1  0  0  0  0
  6 18  1  0  0  0  0
  6 19  1  0  0  0  0
  7  9  2  0  0  0  0
  7 21  1  0  0  0  0
  8 22  1  0  0  0  0
  8 23  1  0  0  0  0
  8 24  1  0  0  0  0
  9 10  1  0  0  0  0
  9 25  1  0  0  0  0
 10 11  1  0  0  0  0
 10 12  2  0  0  0  0
 11 26  1  0  0  0  0
 12 27  1  0  0  0  0
 13 28  1  0  0  0  0
M  END
> <PUBCHEM_COMPOUND_CID>
10154289

> <PUBCHEM_COMPOUND_CANONICALIZED>
1

> <PUBCHEM_CACTVS_COMPLEXITY>
150

> <PUBCHEM_CACTVS_HBOND_ACCEPTOR>
3

> <PUBCHEM_CACTVS_HBOND_DONOR>
1

> <PUBCHEM_CACTVS_ROTATABLE_BOND>
4

> <PUBCHEM_CACTVS_SUBSKEYS>
AAADccBzAAAAAAAAAAAAAAAAAAAAAAAAAAAsAAAAAAAAAAABgAAAHAAQAAAADCjBGgQvkJbIEACgAjBnZACCgCkxAKAJ2KAoRBiICIDASUAEBAgIkAJIgCYAAAAAAAAAAAAAAAAAAAAAAAAAAAAAAAAAAA==

> <PUBCHEM_IUPAC_OPENEYE_NAME>
(E,2S)-N-methyl-5-pyrimidin-5-yl-pent-4-en-2-amine

> <PUBCHEM_IUPAC_CAS_NAME>
(E,2S)-N-methyl-5-(5-pyrimidinyl)-4-penten-2-amine

> <PUBCHEM_IUPAC_NAME_MARKUP>
(<I>E</I>,2<I>S</I>)-<I>N</I>-methyl-5-pyrimidin-5-ylpent-4-en-2-amine

> <PUBCHEM_IUPAC_NAME>
(E,2S)-N-methyl-5-pyrimidin-5-ylpent-4-en-2-amine

> <PUBCHEM_IUPAC_SYSTEMATIC_NAME>
(E,2S)-N-methyl-5-pyrimidin-5-yl-pent-4-en-2-amine

> <PUBCHEM_IUPAC_TRADITIONAL_NAME>
methyl-[(E,1S)-1-methyl-4-(5-pyrimidyl)but-3-enyl]amine

> <PUBCHEM_IUPAC_INCHI>
InChI=1S/C10H15N3/c1-9(11-2)4-3-5-10-6-12-8-13-7-10/h3,5-9,11H,4H2,1-2H3/b5-3+/t9-/m0/s1

> <PUBCHEM_IUPAC_INCHIKEY>
VZNTWLIIJWUCEP-SGRBOOSSSA-N

> <PUBCHEM_XLOGP3_AA>
1.1

> <PUBCHEM_EXACT_MASS>
177.126597491

> <PUBCHEM_MOLECULAR_FORMULA>
C10H15N3

> <PUBCHEM_MOLECULAR_WEIGHT>
177.25

> <PUBCHEM_SMILES>
C[C@@H](C/C=C/C1=CN=CN=C1)NC

> <PUBCHEM_OPENEYE_CAN_SMILES>
CC(CC=CC1=CN=CN=C1)NC

> <PUBCHEM_OPENEYE_ISO_SMILES>
C[C@@H](C/C=C/C1=CN=CN=C1)NC

> <PUBCHEM_CACTVS_TPSA>
37.8

> <PUBCHEM_MONOISOTOPIC_WEIGHT>
177.126597491

> <PUBCHEM_TOTAL_CHARGE>
0

> <PUBCHEM_HEAVY_ATOM_COUNT>
13

> <PUBCHEM_ATOM_DEF_STEREO_COUNT>
1

> <PUBCHEM_ATOM_UDEF_STEREO_COUNT>
0

> <PUBCHEM_BOND_DEF_STEREO_COUNT>
1

> <PUBCHEM_BOND_UDEF_STEREO_COUNT>
0

> <PUBCHEM_ISOTOPIC_ATOM_COUNT>
0

> <PUBCHEM_COMPONENT_COUNT>
1

> <PUBCHEM_CACTVS_TAUTO_COUNT>
-1

> <PUBCHEM_COORDINATE_TYPE>
1
5
255

> <PUBCHEM_BONDANNOTATIONS>
4  1  5
10  11  8
10  12  8
2  11  8
2  13  8
3  12  8
3  13  8

$$$$
