170361
  -OEChem-03112503012D

 29 32  0     1  0  0  0  0  0999 V2000
    9.2314   -0.1051    0.0000 N   0  0  0  0  0  0  0  0  0  0  0  0
    3.4410   -2.0088    0.0000 N   0  0  0  0  0  0  0  0  0  0  0  0
    2.7038    0.0167    0.0000 N   0  0  0  0  0  0  0  0  0  0  0  0
    7.1826    0.0602    0.0000 C   0  0  3  0  0  0  0  0  0  0  0  0
    7.4414    1.0262    0.0000 C   0  0  3  0  0  0  0  0  0  0  0  0
    6.7048    2.0088    0.0000 C   0  0  0  0  0  0  0  0  0  0  0  0
    5.8099   -0.5318    0.0000 C   0  0  0  0  0  0  0  0  0  0  0  0
    5.4679    0.4079    0.0000 C   0  0  0  0  0  0  0  0  0  0  0  0
    8.4543   -0.7344    0.0000 C   0  0  0  0  0  0  0  0  0  0  0  0
    8.8730    0.8285    0.0000 C   0  0  0  0  0  0  0  0  0  0  0  0
    5.1527   -1.3399    0.0000 C   0  0  0  0  0  0  0  0  0  0  0  0
    4.4450    0.6046    0.0000 C   0  0  0  0  0  0  0  0  0  0  0  0
    4.1255   -1.1670    0.0000 C   0  0  0  0  0  0  0  0  0  0  0  0
    3.7693   -0.1882    0.0000 C   0  0  0  0  0  0  0  0  0  0  0  0
    2.3711   -1.8286    0.0000 C   0  0  0  0  0  0  0  0  0  0  0  0
    2.0000   -0.8091    0.0000 C   0  0  0  0  0  0  0  0  0  0  0  0
    7.6849    0.4237    0.0000 H   0  0  0  0  0  0  0  0  0  0  0  0
    7.7561    1.5604    0.0000 H   0  0  0  0  0  0  0  0  0  0  0  0
    7.0226    2.5411    0.0000 H   0  0  0  0  0  0  0  0  0  0  0  0
    6.0916    2.1007    0.0000 H   0  0  0  0  0  0  0  0  0  0  0  0
    8.0697   -1.2207    0.0000 H   0  0  0  0  0  0  0  0  0  0  0  0
    8.8952   -1.1702    0.0000 H   0  0  0  0  0  0  0  0  0  0  0  0
    9.4809    0.9508    0.0000 H   0  0  0  0  0  0  0  0  0  0  0  0
    8.8540    1.4482    0.0000 H   0  0  0  0  0  0  0  0  0  0  0  0
    9.8303   -0.2655    0.0000 H   0  0  0  0  0  0  0  0  0  0  0  0
    5.3715   -1.9201    0.0000 H   0  0  0  0  0  0  0  0  0  0  0  0
    4.2397    1.1896    0.0000 H   0  0  0  0  0  0  0  0  0  0  0  0
    1.9744   -2.3051    0.0000 H   0  0  0  0  0  0  0  0  0  0  0  0
    1.3898   -0.6990    0.0000 H   0  0  0  0  0  0  0  0  0  0  0  0
  1  9  1  0  0  0  0
  1 10  1  0  0  0  0
  1 25  1  0  0  0  0
  2 13  2  0  0  0  0
  2 15  1  0  0  0  0
  3 14  2  0  0  0  0
  3 16  1  0  0  0  0
  4  6  1  0  0  0  0
  4  7  1  0  0  0  0
  4  9  1  0  0  0  0
  4 17  1  0  0  0  0
  5  6  1  0  0  0  0
  5  8  1  0  0  0  0
  5 10  1  0  0  0  0
  5 18  1  0  0  0  0
  6 19  1  0  0  0  0
  6 20  1  0  0  0  0
  7  8  1  0  0  0  0
  7 11  2  0  0  0  0
  8 12  2  0  0  0  0
  9 21  1  0  0  0  0
  9 22  1  0  0  0  0
 10 23  1  0  0  0  0
 10 24  1  0  0  0  0
 11 13  1  0  0  0  0
 11 26  1  0  0  0  0
 12 14  1  0  0  0  0
 12 27  1  0  0  0  0
 13 14  1  0  0  0  0
 15 16  2  0  0  0  0
 15 28  1  0  0  0  0
 16 29  1  0  0  0  0
M  END
> <PUBCHEM_COMPOUND_CID>
170361

> <PUBCHEM_COMPOUND_CANONICALIZED>
1

> <PUBCHEM_CACTVS_COMPLEXITY>
254

> <PUBCHEM_CACTVS_HBOND_ACCEPTOR>
3

> <PUBCHEM_CACTVS_HBOND_DONOR>
1

> <PUBCHEM_CACTVS_ROTATABLE_BOND>
0

> <PUBCHEM_CACTVS_SUBSKEYS>
AAADccBzAAAAAAAAAAAAAAAAAAAAAYAAAAA8WIAABYAAAGCx8AAAHAAQAAAADQjBHgQ8wLLIEACgAzRnRACCgCQxEiAI2KA4dJgIYOLAkZGUIAhgkADIyAcQgMAOiAAAQAAQACAQAACAACAAQQAACAAAAA==

> <PUBCHEM_IUPAC_OPENEYE_NAME>
5,8,14-triazatetracyclo[10.3.1.02,11.04,9]hexadeca-2,4,6,8,10-pentaene

> <PUBCHEM_IUPAC_CAS_NAME>
5,8,14-triazatetracyclo[10.3.1.02,11.04,9]hexadeca-2,4,6,8,10-pentaene

> <PUBCHEM_IUPAC_NAME_MARKUP>
5,8,14-triazatetracyclo[10.3.1.0<SUP>2,11</SUP>.0<SUP>4,9</SUP>]hexadeca-2,4,6,8,10-pentaene

> <PUBCHEM_IUPAC_NAME>
5,8,14-triazatetracyclo[10.3.1.02,11.04,9]hexadeca-2,4,6,8,10-pentaene

> <PUBCHEM_IUPAC_SYSTEMATIC_NAME>
5,8,14-triazatetracyclo[10.3.1.02,11.04,9]hexadeca-2,4,6,8,10-pentaene

> <PUBCHEM_IUPAC_TRADITIONAL_NAME>
5,8,14-triazatetracyclo[10.3.1.02,11.04,9]hexadeca-2,4,6,8,10-pentaene

> <PUBCHEM_IUPAC_INCHI>
InChI=1S/C13H13N3/c1-2-16-13-5-11-9-3-8(6-14-7-9)10(11)4-12(13)15-1/h1-2,4-5,8-9,14H,3,6-7H2

> <PUBCHEM_IUPAC_INCHIKEY>
JQSHBVHOMNKWFT-UHFFFAOYSA-N

> <PUBCHEM_XLOGP3_AA>
0.8

> <PUBCHEM_EXACT_MASS>
211.110947427

> <PUBCHEM_MOLECULAR_FORMULA>
C13H13N3

> <PUBCHEM_MOLECULAR_WEIGHT>
211.26

> <PUBCHEM_SMILES>
C1C2CNCC1C3=CC4=NC=CN=C4C=C23

> <PUBCHEM_OPENEYE_CAN_SMILES>
C1C2CNCC1C3=CC4=NC=CN=C4C=C23

> <PUBCHEM_OPENEYE_ISO_SMILES>
C1C2CNCC1C3=CC4=NC=CN=C4C=C23

> <PUBCHEM_CACTVS_TPSA>
37.8

> <PUBCHEM_MONOISOTOPIC_WEIGHT>
211.110947427

> <PUBCHEM_TOTAL_CHARGE>
0

> <PUBCHEM_HEAVY_ATOM_COUNT>
16

> <PUBCHEM_ATOM_DEF_STEREO_COUNT>
0

> <PUBCHEM_ATOM_UDEF_STEREO_COUNT>
2

> <PUBCHEM_BOND_DEF_STEREO_COUNT>
0

> <PUBCHEM_BOND_UDEF_STEREO_COUNT>
0

> <PUBCHEM_ISOTOPIC_ATOM_COUNT>
0

> <PUBCHEM_COMPONENT_COUNT>
1

> <PUBCHEM_CACTVS_TAUTO_COUNT>
-1

> <PUBCHEM_COORDINATE_TYPE>
1
5
255

> <PUBCHEM_BONDANNOTATIONS>
11  13  8
12  14  8
13  14  8
15  16  8
2  13  8
2  15  8
3  14  8
3  16  8
4  6  3
5  6  3
7  11  8
7  8  8
8  12  8

$$$$
